Version 4
SHEET 1 1464 680
WIRE 784 -464 576 -464
WIRE 848 -464 784 -464
WIRE 576 -256 576 -464
WIRE 672 -256 576 -256
WIRE 432 -224 336 -224
WIRE 576 -224 576 -256
WIRE 784 -224 784 -464
WIRE 672 -208 672 -256
WIRE 736 -208 672 -208
WIRE 336 -112 336 -144
WIRE 576 -112 576 -144
WIRE 736 -112 736 -160
WIRE 736 -112 576 -112
WIRE 784 -112 784 -144
WIRE -64 -64 -112 -64
WIRE 64 -64 16 -64
WIRE 160 -64 64 -64
WIRE 160 -48 160 -64
WIRE 176 -48 160 -48
WIRE 432 -48 432 -224
WIRE 432 -48 368 -48
WIRE -1024 -32 -1088 -32
WIRE -864 -32 -944 -32
WIRE -800 -32 -864 -32
WIRE -448 -32 -608 -32
WIRE -112 -32 -112 -64
WIRE 64 -32 64 -64
WIRE -1088 -16 -1088 -32
WIRE -864 -16 -864 -32
WIRE -1088 0 -1088 -16
WIRE 576 0 576 -112
WIRE 784 0 784 -32
WIRE 64 48 64 32
WIRE 176 48 64 48
WIRE 400 48 368 48
WIRE 512 48 480 48
WIRE 528 48 512 48
WIRE -800 64 -816 64
WIRE -528 64 -608 64
WIRE -864 80 -864 48
WIRE -816 80 -816 64
WIRE -816 80 -864 80
WIRE -1088 96 -1088 64
WIRE -528 96 -528 64
WIRE -112 128 -112 48
WIRE 64 128 64 48
WIRE 576 160 576 96
FLAG -112 128 0
FLAG 336 -112 0
FLAG 64 128 0
FLAG -528 96 0
FLAG -448 48 0
FLAG -1088 96 0
FLAG 576 160 0
FLAG 784 0 0
FLAG 848 -384 0
SYMBOL Optos\\PC817A 272 0 R0
SYMATTR InstName U1
SYMBOL diode 80 32 R180
WINDOW 0 24 64 Left 2
WINDOW 3 24 0 Left 2
SYMATTR InstName D1
SYMBOL voltage -112 -48 R0
WINDOW 123 0 0 Left 2
WINDOW 39 0 0 Left 2
SYMATTR InstName V1
SYMATTR Value PULSE(0 5 1 0 0 2 4 3)
SYMBOL voltage 336 -240 R0
WINDOW 123 0 0 Left 2
WINDOW 39 0 0 Left 2
SYMATTR InstName V2
SYMATTR Value 5
SYMBOL res 32 -80 R90
WINDOW 0 0 56 VBottom 2
WINDOW 3 32 56 VTop 2
SYMATTR InstName R1
SYMATTR Value 1k
SYMBOL Optos\\PC817A -704 16 R0
SYMATTR InstName U2
SYMBOL diode -848 48 R180
WINDOW 0 24 64 Left 2
WINDOW 3 24 0 Left 2
SYMATTR InstName D2
SYMBOL res -928 -48 R90
WINDOW 0 0 56 VBottom 2
WINDOW 3 32 56 VTop 2
SYMATTR InstName R3
SYMATTR Value 10k
SYMBOL res -464 -48 R0
SYMATTR InstName R4
SYMATTR Value 100mR
SYMBOL voltage -1088 -32 R0
WINDOW 123 0 0 Left 2
WINDOW 39 0 0 Left 2
SYMATTR InstName V3
SYMATTR Value PULSE(0 5 1 0 0 2 4 3)
SYMBOL npn 512 0 R0
SYMATTR InstName Q1
SYMATTR Value 2N3055
SYMBOL res 496 32 R90
WINDOW 0 0 56 VBottom 2
WINDOW 3 32 56 VTop 2
SYMATTR InstName R2
SYMATTR Value 1kR
SYMBOL res 560 -240 R0
SYMATTR InstName R5
SYMATTR Value 1kR
SYMBOL res 768 -128 R0
WINDOW 0 40 42 Left 2
SYMATTR InstName R6
SYMATTR Value 10k
SYMBOL sw 784 -128 M180
SYMATTR InstName S1
SYMATTR Value MYSW
SYMBOL Misc\\battery 848 -480 R0
WINDOW 123 0 0 Left 2
WINDOW 39 0 0 Left 2
SYMATTR InstName V4
SYMATTR Value 24
TEXT -144 184 Left 2 !.tran 10
TEXT 880 -168 Left 2 !.model MYSW SW(Ron=1 Roff=1Meg Vt=12 Vh=0)
